           3
 h2o AIMD
O        0.18958792E+00   -0.25459262E-01    0.23544683E+00
H        0.17944701E+00    0.15104161E+01   -0.79208032E+00
H        0.23609191E+00   -0.14746597E+01   -0.72590593E+00
           3
 h2o AIMD
O        0.37899117E+00   -0.49353695E-01    0.25180222E+00
H        0.35858040E+00    0.16613625E+01   -0.73126995E+00
H        0.47542858E+00   -0.16146888E+01   -0.61548466E+00
           3
 h2o AIMD
O        0.56812577E+00   -0.72441756E-01    0.27357906E+00
H        0.53744589E+00    0.18663780E+01   -0.71010074E+00
H        0.71929773E+00   -0.18215868E+01   -0.55147865E+00
           3
 h2o AIMD
O        0.75722734E+00   -0.97415240E-01    0.29718409E+00
H        0.71585124E+00    0.21106485E+01   -0.71107900E+00
H        0.96415130E+00   -0.20378119E+01   -0.49434494E+00
           3
 h2o AIMD
O        0.94663014E+00   -0.12617592E+00    0.32025381E+00
H        0.89359079E+00    0.23787733E+01   -0.72079912E+00
H        0.12048890E+01   -0.22177757E+01   -0.41997205E+00
           3
 h2o AIMD
O        0.11366034E+01   -0.15962170E+00    0.34172631E+00
H        0.10709076E+01    0.26540040E+01   -0.73142381E+00
H        0.14369952E+01   -0.23304770E+01   -0.31934137E+00
           3
 h2o AIMD
O        0.13273103E+01   -0.19808011E+00    0.36143326E+00
H        0.12483434E+01    0.29238405E+01   -0.73994954E+00
H        0.16573359E+01   -0.23582170E+01   -0.19278437E+00
           3
 h2o AIMD
O        0.15188230E+01   -0.24151888E+00    0.37964766E+00
H        0.14263652E+01    0.31823423E+01   -0.74590703E+00
H        0.18642995E+01   -0.22955671E+01   -0.45103882E-01
           3
 h2o AIMD
O        0.17111377E+01   -0.28933857E+00    0.39670939E+00
H        0.16047126E+01    0.34319308E+01   -0.74925559E+00
H        0.20582089E+01   -0.21544639E+01    0.11826442E+00
           3
 h2o AIMD
O        0.19043069E+01   -0.33931024E+00    0.41213139E+00
H        0.17798121E+01    0.36918799E+01   -0.74722615E+00
H        0.22418013E+01   -0.19895621E+01    0.30228280E+00
           3
 h2o AIMD
O        0.20956926E+01   -0.38182558E+00    0.42857717E+00
H        0.19574176E+01    0.39356727E+01   -0.74464490E+00
H        0.24511973E+01   -0.19268613E+01    0.46949840E+00
           3
 h2o AIMD
O        0.22834746E+01   -0.41055572E+00    0.44519257E+00
H        0.21379302E+01    0.41664023E+01   -0.74159592E+00
H        0.27148897E+01   -0.20699145E+01    0.63355394E+00
           3
 h2o AIMD
O        0.24694940E+01   -0.43413546E+00    0.46149394E+00
H        0.23211395E+01    0.43873224E+01   -0.73752676E+00
H        0.30038630E+01   -0.22849125E+01    0.80157410E+00
           3
 h2o AIMD
O        0.26558179E+01   -0.45986610E+00    0.47827020E+00
H        0.25065433E+01    0.46004211E+01   -0.73200411E+00
H        0.32858091E+01   -0.24579472E+01    0.96060254E+00
           3
 h2o AIMD
O        0.28434350E+01   -0.49035194E+00    0.49619280E+00
H        0.26936060E+01    0.48068812E+01   -0.72488235E+00
H        0.35455685E+01   -0.25488622E+01    0.10998356E+01
           3
 h2o AIMD
O        0.30327836E+01   -0.52626799E+00    0.51568364E+00
H        0.28818740E+01    0.50075614E+01   -0.71621990E+00
H        0.37766382E+01   -0.25478016E+01    0.12126348E+01
           3
 h2o AIMD
O        0.32240549E+01   -0.56757080E+00    0.53701033E+00
H        0.30709933E+01    0.52031793E+01   -0.70617524E+00
H        0.39763378E+01   -0.24561726E+01    0.12949106E+01
