           3
 h2o AIMD
O        0.18958792E+00   -0.25459262E-01    0.23227186E+00
H        0.17944701E+00    0.14778831E+01   -0.76688163E+00
H        0.23609191E+00   -0.14421267E+01   -0.70070724E+00
           3
 h2o AIMD
O        0.37901230E+00   -0.46919680E-01    0.24165612E+00
H        0.35917823E+00    0.15233303E+01   -0.63769652E+00
H        0.47449550E+00   -0.15152926E+01   -0.54800524E+00
           3
 h2o AIMD
O        0.56796061E+00   -0.62979997E-01    0.25656167E+00
H        0.54015247E+00    0.15612721E+01   -0.52836598E+00
H        0.71921283E+00   -0.16666709E+01   -0.46309022E+00
           3
 h2o AIMD
O        0.75651434E+00   -0.77580149E-01    0.27522374E+00
H        0.72387956E+00    0.15861049E+01   -0.44322717E+00
H        0.96744066E+00   -0.18281179E+01   -0.41361203E+00
           3
 h2o AIMD
O        0.94493986E+00   -0.94444397E-01    0.29627585E+00
H        0.91212102E+00    0.15934060E+01   -0.38463895E+00
H        0.12131892E+01   -0.19360944E+01   -0.37552130E+00
           3
 h2o AIMD
O        0.11333837E+01   -0.11515098E+00    0.31922108E+00
H        0.11066278E+01    0.15798167E+01   -0.35328523E+00
H        0.14523810E+01   -0.19621897E+01   -0.34024623E+00
           3
 h2o AIMD
O        0.13218289E+01   -0.13974997E+00    0.34399950E+00
H        0.13088751E+01    0.15438239E+01   -0.34852648E+00
H        0.16838115E+01   -0.19040959E+01   -0.30747507E+00
           3
 h2o AIMD
O        0.15100142E+01   -0.16691491E+00    0.37093888E+00
H        0.15198168E+01    0.14866146E+01   -0.36876370E+00
H        0.19106733E+01   -0.17840554E+01   -0.28400960E+00
           3
 h2o AIMD
O        0.16971488E+01   -0.19340157E+00    0.40111851E+00
H        0.17397010E+01    0.14125414E+01   -0.41183847E+00
H        0.21452705E+01   -0.16579176E+01   -0.28914030E+00
           3
 h2o AIMD
O        0.18818805E+01   -0.21508742E+00    0.43630673E+00
H        0.19678726E+01    0.13292588E+01   -0.47533451E+00
H        0.24097225E+01   -0.15987753E+01   -0.35335289E+00
