           3
 h2o AIMD
O        0.18958792E+00   -0.25459262E-01    0.23227186E+00
H        0.17944701E+00    0.14778831E+01   -0.76688163E+00
H        0.23609191E+00   -0.14421267E+01   -0.70070724E+00
           3
 h2o AIMD
O        0.37901230E+00   -0.46919680E-01    0.24165612E+00
H        0.35917823E+00    0.15233303E+01   -0.63769652E+00
H        0.47449550E+00   -0.15152926E+01   -0.54800524E+00
           3
 h2o AIMD
O        0.56796061E+00   -0.62979997E-01    0.25656167E+00
H        0.54015247E+00    0.15612721E+01   -0.52836598E+00
H        0.71921283E+00   -0.16666709E+01   -0.46309022E+00
           3
 h2o AIMD
O        0.75651434E+00   -0.77580149E-01    0.27522374E+00
H        0.72387956E+00    0.15861049E+01   -0.44322717E+00
H        0.96744066E+00   -0.18281179E+01   -0.41361203E+00
           3
 h2o AIMD
O        0.94493986E+00   -0.94444397E-01    0.29627585E+00
H        0.91212102E+00    0.15934060E+01   -0.38463895E+00
H        0.12131892E+01   -0.19360944E+01   -0.37552130E+00
           3
 h2o AIMD
O        0.11333837E+01   -0.11515098E+00    0.31922108E+00
H        0.11066278E+01    0.15798167E+01   -0.35328523E+00
H        0.14523810E+01   -0.19621897E+01   -0.34024623E+00
           3
 h2o AIMD
O        0.13218289E+01   -0.13974997E+00    0.34399950E+00
H        0.13088751E+01    0.15438239E+01   -0.34852648E+00
H        0.16838115E+01   -0.19040959E+01   -0.30747507E+00
           3
 h2o AIMD
O        0.15100142E+01   -0.16691491E+00    0.37093888E+00
H        0.15198168E+01    0.14866146E+01   -0.36876370E+00
H        0.19106733E+01   -0.17840554E+01   -0.28400960E+00
           3
 h2o AIMD
O        0.16971488E+01   -0.19340157E+00    0.40111851E+00
H        0.17397010E+01    0.14125414E+01   -0.41183847E+00
H        0.21452705E+01   -0.16579176E+01   -0.28914030E+00
           3
 h2o AIMD
O        0.18818805E+01   -0.21508742E+00    0.43630673E+00
H        0.19678726E+01    0.13292588E+01   -0.47533451E+00
H        0.24097225E+01   -0.15987753E+01   -0.35335289E+00
           3
 h2o AIMD
O        0.20640780E+01   -0.23235219E+00    0.47626920E+00
H        0.22024450E+01    0.12456966E+01   -0.55570607E+00
H        0.27079998E+01   -0.16095308E+01   -0.47647346E+00
           3
 h2o AIMD
O        0.22456782E+01   -0.24927528E+00    0.51755188E+00
H        0.24397631E+01    0.11655476E+01   -0.64447040E+00
H        0.30130128E+01   -0.16291232E+01   -0.61215730E+00
           3
 h2o AIMD
O        0.24286678E+01   -0.26805196E+00    0.55646848E+00
H        0.26741662E+01    0.10859051E+01   -0.72659034E+00
H        0.32988854E+01   -0.16197994E+01   -0.71692798E+00
           3
 h2o AIMD
O        0.26142979E+01   -0.28897353E+00    0.59047963E+00
H        0.28990665E+01    0.10041567E+01   -0.78582553E+00
H        0.35523479E+01   -0.15743231E+01   -0.76671743E+00
           3
 h2o AIMD
O        0.28031856E+01   -0.31172142E+00    0.61826695E+00
H        0.31085019E+01    0.92333760E+00   -0.81107892E+00
H        0.37695673E+01   -0.15007861E+01   -0.75169536E+00
           3
 h2o AIMD
O        0.29953761E+01   -0.33583497E+00    0.63970266E+00
H        0.32979466E+01    0.85321098E+00   -0.79939052E+00
H        0.39543497E+01   -0.14162640E+01   -0.67279391E+00
           3
 h2o AIMD
O        0.31901554E+01   -0.36055146E+00    0.65604512E+00
H        0.34644458E+01    0.80876075E+00   -0.75618040E+00
H        0.41209846E+01   -0.13478477E+01   -0.54456704E+00
           3
 h2o AIMD
O        0.33856432E+01   -0.38431113E+00    0.67023542E+00
H        0.36068324E+01    0.80506917E+00   -0.69287477E+00
H        0.43004852E+01   -0.13353781E+01   -0.40227365E+00
           3
 h2o AIMD
O        0.35792352E+01   -0.40497330E+00    0.68577228E+00
H        0.37268468E+01    0.84682886E+00   -0.62060040E+00
H        0.45324523E+01   -0.14175273E+01   -0.29032342E+00
           3
 h2o AIMD
O        0.37705916E+01   -0.42251777E+00    0.70298895E+00
H        0.38305020E+01    0.92061515E+00   -0.54358829E+00
H        0.48162639E+01   -0.15811916E+01   -0.20977519E+00
