           3
 h2o AIMD
O        0.18958792E+00   -0.25459262E-01    0.23227186E+00
H        0.17944701E+00    0.14778831E+01   -0.76688163E+00
H        0.23609191E+00   -0.14421267E+01   -0.70070724E+00
           3
 h2o AIMD
O        0.37901230E+00   -0.46919680E-01    0.24165612E+00
H        0.35917823E+00    0.15233303E+01   -0.63769652E+00
H        0.47449550E+00   -0.15152926E+01   -0.54800524E+00
           3
 h2o AIMD
O        0.56796061E+00   -0.62979997E-01    0.25656167E+00
H        0.54015247E+00    0.15612721E+01   -0.52836598E+00
H        0.71921283E+00   -0.16666709E+01   -0.46309022E+00
           3
 h2o AIMD
O        0.75651434E+00   -0.77580149E-01    0.27522374E+00
H        0.72387956E+00    0.15861049E+01   -0.44322717E+00
H        0.96744066E+00   -0.18281179E+01   -0.41361203E+00
           3
 h2o AIMD
O        0.94493986E+00   -0.94444397E-01    0.29627585E+00
H        0.91212102E+00    0.15934060E+01   -0.38463895E+00
H        0.12131892E+01   -0.19360944E+01   -0.37552130E+00
           3
 h2o AIMD
O        0.11333837E+01   -0.11515098E+00    0.31922108E+00
H        0.11066278E+01    0.15798167E+01   -0.35328523E+00
H        0.14523810E+01   -0.19621897E+01   -0.34024623E+00
           3
 h2o AIMD
O        0.13218289E+01   -0.13974997E+00    0.34399950E+00
H        0.13088751E+01    0.15438239E+01   -0.34852648E+00
H        0.16838115E+01   -0.19040959E+01   -0.30747507E+00
           3
 h2o AIMD
O        0.15100142E+01   -0.16691491E+00    0.37093888E+00
H        0.15198168E+01    0.14866146E+01   -0.36876370E+00
H        0.19106733E+01   -0.17840554E+01   -0.28400960E+00
           3
 h2o AIMD
O        0.16971488E+01   -0.19340157E+00    0.40111851E+00
H        0.17397010E+01    0.14125414E+01   -0.41183847E+00
H        0.21452705E+01   -0.16579176E+01   -0.28914030E+00
           3
 h2o AIMD
O        0.18818805E+01   -0.21508742E+00    0.43630673E+00
H        0.19678726E+01    0.13292588E+01   -0.47533451E+00
H        0.24097225E+01   -0.15987753E+01   -0.35335289E+00
           3
 h2o AIMD
O        0.20640780E+01   -0.23235219E+00    0.47626920E+00
H        0.22024450E+01    0.12456966E+01   -0.55570607E+00
H        0.27079998E+01   -0.16095308E+01   -0.47647346E+00
           3
 h2o AIMD
O        0.22456782E+01   -0.24927528E+00    0.51755188E+00
H        0.24397631E+01    0.11655476E+01   -0.64447040E+00
H        0.30130128E+01   -0.16291232E+01   -0.61215730E+00
           3
 h2o AIMD
O        0.24286678E+01   -0.26805196E+00    0.55646848E+00
H        0.26741662E+01    0.10859051E+01   -0.72659034E+00
H        0.32988854E+01   -0.16197994E+01   -0.71692798E+00
           3
 h2o AIMD
O        0.26142979E+01   -0.28897353E+00    0.59047963E+00
H        0.28990665E+01    0.10041567E+01   -0.78582553E+00
H        0.35523479E+01   -0.15743231E+01   -0.76671743E+00
           3
 h2o AIMD
O        0.28031856E+01   -0.31172142E+00    0.61826695E+00
H        0.31085019E+01    0.92333760E+00   -0.81107892E+00
H        0.37695673E+01   -0.15007861E+01   -0.75169536E+00
           3
 h2o AIMD
O        0.29953761E+01   -0.33583497E+00    0.63970266E+00
H        0.32979466E+01    0.85321098E+00   -0.79939052E+00
H        0.39543497E+01   -0.14162640E+01   -0.67279391E+00
           3
 h2o AIMD
O        0.31901554E+01   -0.36055146E+00    0.65604512E+00
H        0.34644458E+01    0.80876075E+00   -0.75618040E+00
H        0.41209846E+01   -0.13478477E+01   -0.54456704E+00
           3
 h2o AIMD
O        0.33856432E+01   -0.38431113E+00    0.67023542E+00
H        0.36068324E+01    0.80506917E+00   -0.69287477E+00
H        0.43004852E+01   -0.13353781E+01   -0.40227365E+00
           3
 h2o AIMD
O        0.35792352E+01   -0.40497330E+00    0.68577228E+00
H        0.37268468E+01    0.84682886E+00   -0.62060040E+00
H        0.45324523E+01   -0.14175273E+01   -0.29032342E+00
           3
 h2o AIMD
O        0.37705916E+01   -0.42251777E+00    0.70298895E+00
H        0.38305020E+01    0.92061515E+00   -0.54358829E+00
H        0.48162639E+01   -0.15811916E+01   -0.20977519E+00
           3
 h2o AIMD
O        0.39619261E+01   -0.43943219E+00    0.71971154E+00
H        0.39273670E+01    0.10014352E+01   -0.46023376E+00
H        0.51072139E+01   -0.17618906E+01   -0.12772667E+00
           3
 h2o AIMD
O        0.41548703E+01   -0.45767664E+00    0.73478811E+00
H        0.40277978E+01    0.10657577E+01   -0.36886452E+00
H        0.53690467E+01   -0.19049800E+01   -0.27564961E-01
           3
 h2o AIMD
O        0.43498512E+01   -0.47808228E+00    0.74835583E+00
H        0.41406961E+01    0.10986342E+01   -0.27101764E+00
H        0.55860816E+01   -0.19823181E+01    0.90069564E-01
           3
 h2o AIMD
O        0.45465969E+01   -0.50091156E+00    0.76122010E+00
H        0.42725821E+01    0.10947882E+01   -0.17163541E+00
H        0.57561159E+01   -0.19844624E+01    0.21733491E+00
           3
 h2o AIMD
O        0.47443046E+01   -0.52599942E+00    0.77455620E+00
H        0.44267446E+01    0.10586647E+01   -0.78116646E-01
H        0.58886044E+01   -0.19184779E+01    0.34297430E+00
           3
 h2o AIMD
O        0.49411176E+01   -0.55208095E+00    0.78991971E+00
H        0.46024420E+01    0.10045585E+01    0.60680185E-03
H        0.60137593E+01   -0.18187378E+01    0.45122707E+00
           3
 h2o AIMD
O        0.51332428E+01   -0.57584742E+00    0.80925893E+00
H        0.47954318E+01    0.95471398E+00    0.54745674E-01
H        0.61960338E+01   -0.17600073E+01    0.52095640E+00
           3
 h2o AIMD
O        0.53177213E+01   -0.59536824E+00    0.83380601E+00
H        0.50013430E+01    0.93130710E+00    0.75442596E-01
H        0.64867650E+01   -0.17951070E+01    0.54146154E+00
           3
 h2o AIMD
O        0.54976980E+01   -0.61487371E+00    0.86268714E+00
H        0.52207518E+01    0.94064977E+00    0.60294836E-01
H        0.68354576E+01   -0.18631999E+01    0.52901542E+00
           3
 h2o AIMD
O        0.56771609E+01   -0.63745316E+00    0.89408386E+00
H        0.54592578E+01    0.96356159E+00    0.19294050E-01
H        0.71732087E+01   -0.18960676E+01    0.50249153E+00
           3
 h2o AIMD
O        0.58581504E+01   -0.66294720E+00    0.92615255E+00
H        0.57204394E+01    0.97122875E+00   -0.30160877E-01
H        0.74640523E+01   -0.18674264E+01    0.47375523E+00
           3
 h2o AIMD
O        0.60417089E+01   -0.69014942E+00    0.95735534E+00
H        0.60016052E+01    0.94316397E+00   -0.71762063E-01
H        0.76941319E+01   -0.17759386E+01    0.45090997E+00
           3
 h2o AIMD
O        0.62283523E+01   -0.71785658E+00    0.98662626E+00
H        0.62945399E+01    0.87260369E+00   -0.94442185E-01
H        0.78634756E+01   -0.16339403E+01    0.43980891E+00
           3
 h2o AIMD
O        0.64177150E+01   -0.74495470E+00    0.10136003E+01
H        0.65871241E+01    0.76732519E+00   -0.94288535E-01
H        0.79900057E+01   -0.14668911E+01    0.44233300E+00
           3
 h2o AIMD
O        0.66077032E+01   -0.77037009E+00    0.10390508E+01
H        0.68646503E+01    0.65098202E+00   -0.76832965E-01
H        0.81216643E+01   -0.13154880E+01    0.45174001E+00
           3
 h2o AIMD
O        0.67949018E+01   -0.79366986E+00    0.10648375E+01
H        0.71128760E+01    0.55923332E+00   -0.57438351E-01
H        0.83269040E+01   -0.12222613E+01    0.45387023E+00
           3
 h2o AIMD
O        0.69789462E+01   -0.81590839E+00    0.10917587E+01
H        0.73222617E+01    0.52089640E+00   -0.51928245E-01
H        0.86210515E+01   -0.11992918E+01    0.45187731E+00
           3
 h2o AIMD
O        0.71636029E+01   -0.83812741E+00    0.11183254E+01
H        0.74895731E+01    0.53502421E+00   -0.60414800E-01
H        0.89475531E+01   -0.12290968E+01    0.46950709E+00
           3
 h2o AIMD
O        0.73523496E+01   -0.86011685E+00    0.11425783E+01
H        0.76169123E+01    0.57564980E+00   -0.67381142E-01
H        0.92491061E+01   -0.12890438E+01    0.52234460E+00
           3
 h2o AIMD
O        0.75468256E+01   -0.88119989E+00    0.11633037E+01
H        0.77110296E+01    0.61361062E+00   -0.55839018E-01
H        0.94929383E+01   -0.13607135E+01    0.61266731E+00
           3
 h2o AIMD
O        0.77472058E+01   -0.90095471E+00    0.11802328E+01
H        0.77823634E+01    0.62856862E+00   -0.15992306E-01
H        0.96658325E+01   -0.14304638E+01    0.73494610E+00
           3
 h2o AIMD
O        0.79524983E+01   -0.91938762E+00    0.11939551E+01
H        0.78433790E+01    0.61151120E+00    0.53158486E-01
H        0.97710722E+01   -0.14891819E+01    0.87882296E+00
           3
 h2o AIMD
O        0.81602752E+01   -0.93677830E+00    0.12058362E+01
H        0.79065244E+01    0.56486861E+00    0.14434683E+00
H        0.98347445E+01   -0.15348585E+01    0.10298892E+01
           3
 h2o AIMD
O        0.83660531E+01   -0.95323844E+00    0.12177603E+01
H        0.79813012E+01    0.50257507E+00    0.24317888E+00
H        0.99185167E+01   -0.15796548E+01    0.11726280E+01
           3
 h2o AIMD
O        0.85648081E+01   -0.96872188E+00    0.12312961E+01
H        0.80712211E+01    0.44762885E+00    0.33137060E+00
H        0.10098624E+02   -0.16473020E+01    0.13004238E+01
           3
 h2o AIMD
O        0.87569486E+01   -0.98491538E+00    0.12471980E+01
H        0.81749200E+01    0.42211320E+00    0.39415535E+00
H        0.10369946E+02   -0.17331088E+01    0.14160698E+01
           3
 h2o AIMD
O        0.89469672E+01   -0.10043257E+01    0.12658043E+01
H        0.82943244E+01    0.43018007E+00    0.43011476E+00
H        0.10659245E+02   -0.18014368E+01    0.15156127E+01
           3
 h2o AIMD
O        0.91374834E+01   -0.10275181E+01    0.12868084E+01
H        0.84397183E+01    0.45452698E+00    0.45128078E+00
H        0.10914654E+02   -0.18260094E+01    0.15918881E+01
           3
 h2o AIMD
O        0.93289615E+01   -0.10537004E+01    0.13095441E+01
H        0.86231474E+01    0.47297851E+00    0.47211966E+00
H        0.11116760E+02   -0.17972283E+01    0.16410027E+01
           3
 h2o AIMD
O        0.95208446E+01   -0.10818322E+01    0.13333756E+01
H        0.88510070E+01    0.47125077E+00    0.50217064E+00
H        0.11268007E+02   -0.17173217E+01    0.16635136E+01
           3
 h2o AIMD
O        0.97117064E+01   -0.11109491E+01    0.13577440E+01
H        0.91216596E+01    0.44633950E+00    0.54440734E+00
H        0.11392673E+02   -0.15985952E+01    0.16653148E+01
           3
 h2o AIMD
O        0.98988744E+01   -0.11403741E+01    0.13821387E+01
H        0.94253263E+01    0.40791145E+00    0.59468944E+00
H        0.11542956E+02   -0.14614599E+01    0.16586535E+01
           3
 h2o AIMD
O        0.10079941E+02   -0.11705226E+01    0.14064383E+01
H        0.97454671E+01    0.37854219E+00    0.64177367E+00
H        0.11773619E+02   -0.13219002E+01    0.16567000E+01
           3
 h2o AIMD
O        0.10256923E+02   -0.12027344E+01    0.14312776E+01
H        0.10064722E+02    0.38210391E+00    0.67325997E+00
H        0.12070006E+02   -0.11825215E+01    0.16617776E+01
           3
 h2o AIMD
O        0.10434587E+02   -0.12365215E+01    0.14569354E+01
H        0.10371639E+02    0.41801093E+00    0.68816265E+00
H        0.12367891E+02   -0.10504813E+01    0.16704456E+01
           3
 h2o AIMD
O        0.10616309E+02   -0.12693178E+01    0.14827659E+01
H        0.10657825E+02    0.45994058E+00    0.69709759E+00
H        0.12622099E+02   -0.94019013E+00    0.16823396E+01
           3
 h2o AIMD
O        0.10803697E+02   -0.12986092E+01    0.15079793E+01
H        0.10914748E+02    0.48098536E+00    0.71049551E+00
H        0.12815638E+02   -0.86465050E+00    0.16995671E+01
           3
 h2o AIMD
O        0.10997176E+02   -0.13229541E+01    0.15321007E+01
H        0.11134911E+02    0.46702020E+00    0.73285748E+00
H        0.12949257E+02   -0.83261717E+00    0.17251645E+01
           3
 h2o AIMD
O        0.11196175E+02   -0.13420286E+01    0.15549697E+01
H        0.11312779E+02    0.41702492E+00    0.76280110E+00
H        0.13037540E+02   -0.84821298E+00    0.17630603E+01
           3
 h2o AIMD
O        0.11398801E+02   -0.13566510E+01    0.15766268E+01
H        0.11445375E+02    0.34127607E+00    0.79397399E+00
H        0.13113517E+02   -0.90872470E+00    0.18189634E+01
           3
 h2o AIMD
O        0.11601383E+02   -0.13688961E+01    0.15971591E+01
H        0.11534063E+02    0.25944953E+00    0.81641667E+00
H        0.13234110E+02   -0.10008956E+01    0.19014505E+01
           3
 h2o AIMD
O        0.11800174E+02   -0.13813014E+01    0.16166602E+01
H        0.11586751E+02    0.19372716E+00    0.82083025E+00
H        0.13450888E+02   -0.11066270E+01    0.20183348E+01
           3
 h2o AIMD
O        0.11995842E+02   -0.13949914E+01    0.16357551E+01
H        0.11618024E+02    0.15369946E+00    0.80651861E+00
H        0.13738640E+02   -0.12176602E+01    0.21603933E+01
           3
 h2o AIMD
O        0.12191737E+02   -0.14096556E+01    0.16553680E+01
H        0.11647433E+02    0.12788584E+00    0.78515291E+00
H        0.14024646E+02   -0.13274451E+01    0.23012832E+01
           3
 h2o AIMD
O        0.12389631E+02   -0.14246928E+01    0.16758861E+01
H        0.11695481E+02    0.96325889E-01    0.77321397E+00
H        0.14260292E+02   -0.14255608E+01    0.24183773E+01
           3
 h2o AIMD
O        0.12589603E+02   -0.14398554E+01    0.16972802E+01
H        0.11778751E+02    0.45305492E-01    0.78327432E+00
H        0.14427735E+02   -0.15022276E+01    0.24995675E+01
           3
 h2o AIMD
O        0.12790912E+02   -0.14553554E+01    0.17193704E+01
H        0.11906826E+02   -0.28673009E-01    0.82112805E+00
H        0.14529140E+02   -0.15505796E+01    0.25419156E+01
           3
 h2o AIMD
O        0.12992136E+02   -0.14717803E+01    0.17417434E+01
H        0.12080154E+02   -0.11913403E+00    0.88527181E+00
H        0.14586660E+02   -0.15677682E+01    0.25534837E+01
           3
 h2o AIMD
O        0.13190595E+02   -0.14901510E+01    0.17633477E+01
H        0.12287228E+02   -0.20776918E+00    0.96542905E+00
H        0.14654308E+02   -0.15558948E+01    0.25612402E+01
           3
 h2o AIMD
O        0.13382894E+02   -0.15122668E+01    0.17825833E+01
H        0.12503263E+02   -0.26203421E+00    0.10419175E+01
H        0.14810778E+02   -0.15189467E+01    0.26102649E+01
           3
 h2o AIMD
O        0.13569913E+02   -0.15403758E+01    0.17998730E+01
H        0.12702496E+02   -0.24803567E+00    0.10960380E+01
H        0.15067858E+02   -0.14551282E+01    0.27125460E+01
           3
 h2o AIMD
O        0.13756321E+02   -0.15743187E+01    0.18175484E+01
H        0.12886615E+02   -0.16802979E+00    0.11322122E+01
H        0.15349746E+02   -0.13647137E+01    0.28266508E+01
           3
 h2o AIMD
O        0.13944398E+02   -0.16109167E+01    0.18365348E+01
H        0.13080585E+02   -0.63291954E-01    0.11725513E+01
H        0.15595297E+02   -0.12568858E+01    0.29157798E+01
           3
 h2o AIMD
O        0.14134581E+02   -0.16466844E+01    0.18568762E+01
H        0.13302755E+02    0.24114981E-01    0.12326647E+01
H        0.15779222E+02   -0.11449064E+01    0.29636264E+01
           3
 h2o AIMD
O        0.14326862E+02   -0.16791181E+01    0.18785391E+01
H        0.13556892E+02    0.68032766E-01    0.13160728E+01
H        0.15897880E+02   -0.10423599E+01    0.29672020E+01
           3
 h2o AIMD
O        0.14520975E+02   -0.17068425E+01    0.19014158E+01
H        0.13835580E+02    0.58049144E-01    0.14173896E+01
H        0.15962909E+02   -0.96066471E+00    0.29336017E+01
           3
 h2o AIMD
O        0.14716103E+02   -0.17299085E+01    0.19250325E+01
H        0.14121657E+02    0.61684301E-04    0.15238351E+01
H        0.16004424E+02   -0.90490978E+00    0.28831266E+01
           3
 h2o AIMD
O        0.14910657E+02   -0.17505181E+01    0.19482769E+01
H        0.14388088E+02   -0.79157633E-01    0.16155026E+01
H        0.16074699E+02   -0.86691514E+00    0.28533390E+01
           3
 h2o AIMD
O        0.15103290E+02   -0.17725562E+01    0.19700282E+01
H        0.14603712E+02   -0.13497792E+00    0.16698700E+01
H        0.16226286E+02   -0.82964363E+00    0.28845521E+01
           3
 h2o AIMD
O        0.15294974E+02   -0.17974683E+01    0.19908992E+01
H        0.14752088E+02   -0.13918458E+00    0.16750778E+01
H        0.16460180E+02   -0.79836578E+00    0.29788982E+01
           3
 h2o AIMD
O        0.15487726E+02   -0.18221594E+01    0.20126286E+01
H        0.14846712E+02   -0.11512365E+00    0.16397683E+01
H        0.16730870E+02   -0.79886364E+00    0.31001356E+01
           3
 h2o AIMD
O        0.15682435E+02   -0.18428034E+01    0.20362748E+01
H        0.14917268E+02   -0.10784351E+00    0.15836577E+01
H        0.16994567E+02   -0.84682178E+00    0.32117489E+01
           3
 h2o AIMD
O        0.15879020E+02   -0.18574766E+01    0.20620594E+01
H        0.14991298E+02   -0.14738117E+00    0.15256875E+01
H        0.17224998E+02   -0.94273804E+00    0.32912768E+01
           3
 h2o AIMD
O        0.16076974E+02   -0.18661529E+01    0.20896943E+01
H        0.15088053E+02   -0.24347966E+00    0.14799319E+01
H        0.17410990E+02   -0.10772866E+01    0.33292217E+01
           3
 h2o AIMD
O        0.16275472E+02   -0.18702500E+01    0.21184309E+01
H        0.15217986E+02   -0.39029499E+00    0.14551550E+01
H        0.17555165E+02   -0.12338035E+01    0.33286979E+01
           3
 h2o AIMD
O        0.16473179E+02   -0.18725115E+01    0.21467944E+01
H        0.15380904E+02   -0.56838459E+00    0.14535661E+01
H        0.17678900E+02   -0.13881843E+01    0.33109090E+01
           3
 h2o AIMD
O        0.16668336E+02   -0.18768198E+01    0.21724832E+01
H        0.15560152E+02   -0.74378685E+00    0.14669422E+01
H        0.17826795E+02   -0.15127625E+01    0.33206124E+01
           3
 h2o AIMD
O        0.16860864E+02   -0.18868055E+01    0.21942807E+01
H        0.15720454E+02   -0.87340288E+00    0.14752593E+01
H        0.18035357E+02   -0.15930072E+01    0.33971424E+01
           3
 h2o AIMD
O        0.17054030E+02   -0.19034753E+01    0.22143648E+01
H        0.15835224E+02   -0.93375162E+00    0.14648266E+01
H        0.18279342E+02   -0.16364209E+01    0.35196198E+01
           3
 h2o AIMD
O        0.17249713E+02   -0.19249456E+01    0.22347550E+01
H        0.15924642E+02   -0.94424229E+00    0.14519912E+01
H        0.18508708E+02   -0.16534921E+01    0.36396418E+01
           3
 h2o AIMD
O        0.17447239E+02   -0.19488572E+01    0.22556412E+01
H        0.16029561E+02   -0.93703510E+00    0.14643410E+01
H        0.18693329E+02   -0.16495098E+01    0.37266037E+01
           3
 h2o AIMD
O        0.17645481E+02   -0.19737399E+01    0.22766281E+01
H        0.16177128E+02   -0.93274484E+00    0.15184498E+01
H        0.18823919E+02   -0.16271955E+01    0.37702090E+01
           3
 h2o AIMD
O        0.17843510E+02   -0.19989042E+01    0.22971797E+01
H        0.16376743E+02   -0.94056581E+00    0.16179938E+01
H        0.18905863E+02   -0.15883005E+01    0.37752883E+01
           3
 h2o AIMD
O        0.18040550E+02   -0.20243547E+01    0.23164360E+01
H        0.16622313E+02   -0.96079580E+00    0.17562022E+01
H        0.18957547E+02   -0.15324522E+01    0.37622655E+01
           3
 h2o AIMD
O        0.18236360E+02   -0.20510463E+01    0.23332194E+01
H        0.16889514E+02   -0.98269613E+00    0.19163220E+01
H        0.19007116E+02   -0.14552338E+01    0.37665827E+01
           3
 h2o AIMD
O        0.18432245E+02   -0.20806034E+01    0.23472487E+01
H        0.17135209E+02   -0.98290940E+00    0.20743654E+01
H        0.19077007E+02   -0.13542191E+01    0.38166949E+01
           3
 h2o AIMD
O        0.18630202E+02   -0.21131822E+01    0.23603846E+01
H        0.17324699E+02   -0.94414146E+00    0.22115804E+01
H        0.19170204E+02   -0.12442186E+01    0.39018154E+01
           3
 h2o AIMD
O        0.18829824E+02   -0.21459122E+01    0.23751759E+01
H        0.17468625E+02   -0.88482188E+00    0.23214470E+01
H        0.19282542E+02   -0.11523716E+01    0.39880072E+01
           3
 h2o AIMD
O        0.19029052E+02   -0.21751897E+01    0.23934368E+01
H        0.17600473E+02   -0.84082334E+00    0.24009104E+01
H        0.19413211E+02   -0.11000048E+01    0.40495290E+01
           3
 h2o AIMD
O        0.19226239E+02   -0.21988107E+01    0.24160439E+01
H        0.17744770E+02   -0.83685467E+00    0.24474692E+01
H        0.19563838E+02   -0.10973967E+01    0.40749664E+01
