           3
 h2o AIMD
O        0.36144056E+01   -0.10768031E+01    0.17049879E+01
H        0.49006186E+01    0.27423112E+00    0.22822743E+01
H        0.30032095E+01    0.90097112E+00    0.15196425E+01
           3
 h2o AIMD
O        0.35576216E+01   -0.10647684E+01    0.17378637E+01
H        0.50459888E+01    0.37411908E+00    0.23152414E+01
H        0.28217214E+01    0.93603262E+00    0.14512579E+01
           3
 h2o AIMD
O        0.35031088E+01   -0.10423190E+01    0.17716172E+01
H        0.51628928E+01    0.39407259E+00    0.23371874E+01
H        0.26326469E+01    0.88571134E+00    0.13799628E+01
           3
 h2o AIMD
O        0.34513561E+01   -0.10094082E+01    0.18060250E+01
H        0.52234999E+01    0.33445338E+00    0.23410440E+01
H        0.24560580E+01    0.74890583E+00    0.13163708E+01
           3
 h2o AIMD
O        0.34026141E+01   -0.96747421E+00    0.18408343E+01
H        0.52111306E+01    0.20388828E+00    0.23240434E+01
H        0.23046560E+01    0.53981748E+00    0.12672621E+01
           3
 h2o AIMD
O        0.33574400E+01   -0.91966071E+00    0.18761463E+01
H        0.51169282E+01    0.18154590E-01    0.22854517E+01
H        0.21784511E+01    0.29257017E+00    0.12317672E+01
           3
 h2o AIMD
O        0.33166438E+01   -0.87098824E+00    0.19127731E+01
H        0.49506853E+01   -0.19498976E+00    0.22278918E+01
H        0.20547948E+01    0.59098991E-01    0.11943681E+01
           3
 h2o AIMD
O        0.32775727E+01   -0.82667204E+00    0.19513912E+01
H        0.47837430E+01   -0.38673641E+00    0.21631019E+01
H        0.19044565E+01   -0.12662141E+00    0.11325909E+01
           3
 h2o AIMD
O        0.32280548E+01   -0.78930507E+00    0.19907561E+01
H        0.47913686E+01   -0.50133094E+00    0.21079809E+01
H        0.17453742E+01   -0.27918612E+00    0.10492901E+01
           3
 h2o AIMD
O        0.31656856E+01   -0.75601902E+00    0.20309739E+01
H        0.49677584E+01   -0.56253831E+00    0.20418757E+01
H        0.16215226E+01   -0.42036007E+00    0.96343607E+00
           3
 h2o AIMD
O        0.31000142E+01   -0.72373746E+00    0.20725433E+01
H        0.51341558E+01   -0.61070541E+00    0.19459277E+01
H        0.15600794E+01   -0.55862964E+00    0.88597086E+00
           3
 h2o AIMD
O        0.30356380E+01   -0.69157516E+00    0.21150102E+01
H        0.52091685E+01   -0.65767517E+00    0.18235643E+01
H        0.15694619E+01   -0.69620364E+00    0.82067280E+00
           3
 h2o AIMD
O        0.29742226E+01   -0.65937193E+00    0.21575097E+01
H        0.51712174E+01   -0.70604260E+00    0.16865797E+01
H        0.16448111E+01   -0.83302952E+00    0.76947990E+00
           3
 h2o AIMD
O        0.29168002E+01   -0.62727453E+00    0.21989793E+01
H        0.50185258E+01   -0.75478731E+00    0.15508662E+01
H        0.17715179E+01   -0.96779834E+00    0.73336406E+00
           3
 h2o AIMD
O        0.28641105E+01   -0.59561124E+00    0.22383374E+01
H        0.47613087E+01   -0.80007997E+00    0.14345668E+01
H        0.19276262E+01   -0.10991283E+01    0.71134951E+00
           3
 h2o AIMD
O        0.28158169E+01   -0.56479235E+00    0.22746536E+01
H        0.44326033E+01   -0.83608794E+00    0.13535823E+01
H        0.20854423E+01   -0.12263395E+01    0.70230547E+00
           3
 h2o AIMD
O        0.27690624E+01   -0.53506213E+00    0.23079872E+01
H        0.41113586E+01   -0.85859205E+00    0.13057676E+01
H        0.22113660E+01   -0.13497737E+01    0.70743694E+00
           3
 h2o AIMD
O        0.27183940E+01   -0.50599365E+00    0.23408322E+01
H        0.39197267E+01   -0.87114626E+00    0.12487078E+01
H        0.22698057E+01   -0.14726539E+01    0.72956719E+00
           3
 h2o AIMD
O        0.26618939E+01   -0.47762885E+00    0.23744459E+01
H        0.39106490E+01   -0.86834415E+00    0.11553729E+01
H        0.22382583E+01   -0.15997206E+01    0.77577249E+00
           3
 h2o AIMD
O        0.26035344E+01   -0.45182177E+00    0.24048395E+01
H        0.40089935E+01   -0.82808350E+00    0.10711540E+01
H        0.21288044E+01   -0.17236461E+01    0.86397536E+00
