           3
 h2o AIMD
O        0.18958792E+00   -0.25459262E-01    0.50228597E-02
H        0.17944701E+00    0.23938575E+01    0.14212917E+00
H        0.23609191E+00   -0.23581011E+01    0.20830356E+00
           3
 h2o AIMD
O        0.37926423E+00   -0.52070822E-01    0.10830656E-01
H        0.35836490E+00    0.24427673E+01    0.27923170E+00
H        0.47130984E+00   -0.23529637E+01    0.40985859E+00
           3
 h2o AIMD
O        0.56913725E+00   -0.80849259E-01    0.17991834E-01
H        0.53649885E+00    0.24893840E+01    0.40895163E+00
H        0.70418920E+00   -0.23111375E+01    0.59731349E+00
           3
 h2o AIMD
O        0.75930058E+00   -0.11286115E+00    0.26806268E-01
H        0.71398515E+00    0.25345892E+01    0.53272864E+00
H        0.93310813E+00   -0.22165740E+01    0.76446858E+00
           3
 h2o AIMD
O        0.94985249E+00   -0.14908443E+00    0.37433591E-01
H        0.89098584E+00    0.25841299E+01    0.65393161E+00
H        0.11563444E+01   -0.20594972E+01    0.90542106E+00
           3
 h2o AIMD
O        0.11408367E+01   -0.18956796E+00    0.49775318E-01
H        0.10676565E+01    0.26426632E+01    0.77609211E+00
H        0.13730484E+01   -0.18437882E+01    0.10182026E+01
           3
 h2o AIMD
O        0.13320342E+01   -0.23213314E+00    0.62755063E-01
H        0.12442078E+01    0.27097439E+01    0.90118980E+00
H        0.15864873E+01   -0.16035841E+01    0.11179196E+01
           3
 h2o AIMD
O        0.15226427E+01   -0.27200854E+00    0.73056750E-01
H        0.14208578E+01    0.27812949E+01    0.10291345E+01
H        0.18091755E+01   -0.14105460E+01    0.12572993E+01
           3
 h2o AIMD
O        0.17118426E+01   -0.30650360E+00    0.77423447E-01
H        0.15977726E+01    0.28525306E+01    0.11585564E+01
H        0.20539596E+01   -0.13025968E+01    0.14894100E+01
           3
 h2o AIMD
O        0.19003738E+01   -0.33894908E+00    0.79087261E-01
H        0.17750277E+01    0.29194419E+01    0.12875525E+01
H        0.23090162E+01   -0.12228570E+01    0.17648504E+01
           3
 h2o AIMD
O        0.20893887E+01   -0.37207450E+00    0.82957488E-01
H        0.19526186E+01    0.29793010E+01    0.14142802E+01
H        0.25560607E+01   -0.11252720E+01    0.20075360E+01
           3
 h2o AIMD
O        0.22795077E+01   -0.40644843E+00    0.91704736E-01
H        0.21305222E+01    0.30304820E+01    0.15373491E+01
H        0.27852646E+01   -0.99919067E+00    0.21764656E+01
           3
 h2o AIMD
O        0.24709742E+01   -0.44178208E+00    0.10639701E+00
H        0.23087376E+01    0.30721504E+01    0.16559278E+01
H        0.29927695E+01   -0.84836298E+00    0.22555180E+01
           3
 h2o AIMD
O        0.26638429E+01   -0.47756428E+00    0.12728657E+00
H        0.24872941E+01    0.31040648E+01    0.17696993E+01
H        0.31776742E+01   -0.68066119E+00    0.22410056E+01
           3
 h2o AIMD
O        0.28580156E+01   -0.51323523E+00    0.15396265E+00
H        0.26662258E+01    0.31265183E+01    0.18787335E+01
H        0.33415061E+01   -0.50526436E+00    0.21393792E+01
           3
 h2o AIMD
O        0.30531099E+01   -0.54831018E+00    0.18482408E+00
H        0.28455085E+01    0.31404828E+01    0.19833505E+01
H        0.34903568E+01   -0.33083912E+00    0.19757342E+01
           3
 h2o AIMD
O        0.32481496E+01   -0.58292131E+00    0.21580464E+00
H        0.30249943E+01    0.31480694E+01    0.20842737E+01
H        0.36398720E+01   -0.15739850E+00    0.18138921E+01
           3
 h2o AIMD
O        0.34416695E+01   -0.61906761E+00    0.24066588E+00
H        0.32045509E+01    0.31541055E+01    0.21843473E+01
H        0.38134410E+01    0.41961144E-01    0.17500338E+01
           3
 h2o AIMD
O        0.36348082E+01   -0.66951153E+00    0.25454312E+00
H        0.33922404E+01    0.32505720E+01    0.23700760E+01
H        0.39849270E+01    0.37784158E+00    0.17748734E+01
           3
 h2o AIMD
O        0.38277552E+01   -0.71924609E+00    0.26846268E+00
H        0.35799220E+01    0.33350272E+01    0.25475937E+01
H        0.41594655E+01    0.71447354E+00    0.18072523E+01
           3
 h2o AIMD
O        0.40210997E+01   -0.76607310E+00    0.28502222E+00
H        0.37695105E+01    0.34000300E+01    0.27154304E+01
H        0.43257851E+01    0.10244052E+01    0.18074068E+01
           3
 h2o AIMD
O        0.42148994E+01   -0.80961604E+00    0.30425405E+00
H        0.39648038E+01    0.34353267E+01    0.28704643E+01
H        0.44791753E+01    0.13119138E+01    0.17779459E+01
           3
 h2o AIMD
O        0.44091142E+01   -0.85030401E+00    0.32549820E+00
H        0.41707196E+01    0.34305965E+01    0.30053589E+01
H        0.46153553E+01    0.15941313E+01    0.17366819E+01
           3
 h2o AIMD
O        0.46036818E+01   -0.88879138E+00    0.34795464E+00
H        0.43912941E+01    0.33798161E+01    0.31072208E+01
H        0.47312757E+01    0.18874679E+01    0.17092076E+01
           3
 h2o AIMD
O        0.47984097E+01   -0.92583096E+00    0.37096792E+00
H        0.46246794E+01    0.32849247E+01    0.31632562E+01
H        0.48318395E+01    0.22019344E+01    0.17187207E+01
           3
 h2o AIMD
O        0.49931707E+01   -0.96222845E+00    0.39414095E+00
H        0.48653682E+01    0.31580843E+01    0.31713478E+01
H        0.49245758E+01    0.25381577E+01    0.17736421E+01
           3
 h2o AIMD
O        0.51879347E+01   -0.99859662E+00    0.41723786E+00
H        0.51068239E+01    0.30265382E+01    0.31610483E+01
H        0.50164975E+01    0.28786212E+01    0.18481627E+01
           3
 h2o AIMD
O        0.53827025E+01   -0.10351842E+01    0.44017764E+00
H        0.53516526E+01    0.29044833E+01    0.32035189E+01
H        0.51049851E+01    0.32130771E+01    0.18724074E+01
           3
 h2o AIMD
O        0.55774760E+01   -0.10719948E+01    0.46298563E+00
H        0.55999479E+01    0.27805248E+01    0.32665242E+01
H        0.51899168E+01    0.35529755E+01    0.18782094E+01
           3
 h2o AIMD
O        0.57722572E+01   -0.11089620E+01    0.48572070E+00
H        0.58351400E+01    0.26822145E+01    0.32858387E+01
H        0.52878277E+01    0.38697110E+01    0.19288597E+01
           3
 h2o AIMD
O        0.59670515E+01   -0.11460284E+01    0.50844009E+00
H        0.60466494E+01    0.26348123E+01    0.32461151E+01
H        0.54092152E+01    0.41371137E+01    0.20387968E+01
           3
 h2o AIMD
O        0.61618658E+01   -0.11831610E+01    0.53118523E+00
H        0.62301495E+01    0.26517020E+01    0.31522194E+01
H        0.55582932E+01    0.43412759E+01    0.22024974E+01
           3
 h2o AIMD
O        0.63567071E+01   -0.12203608E+01    0.55396900E+00
H        0.63839752E+01    0.27406729E+01    0.30147742E+01
H        0.57366168E+01    0.44744241E+01    0.24091345E+01
           3
 h2o AIMD
O        0.65515807E+01   -0.12576692E+01    0.57676947E+00
H        0.65085570E+01    0.29051030E+01    0.28482421E+01
H        0.59436728E+01    0.45338360E+01    0.26445930E+01
           3
 h2o AIMD
O        0.67464953E+01   -0.12951591E+01    0.59954903E+00
H        0.66094470E+01    0.31343943E+01    0.26712154E+01
H        0.61737688E+01    0.45312677E+01    0.28908785E+01
           3
 h2o AIMD
O        0.69413321E+01   -0.13319611E+01    0.62258771E+00
H        0.67122334E+01    0.33598324E+01    0.24943502E+01
H        0.64032053E+01    0.45216338E+01    0.31328890E+01
           3
 h2o AIMD
O        0.71361082E+01   -0.13685873E+01    0.64573259E+00
H        0.68264419E+01    0.35557644E+01    0.22987887E+01
H        0.66221806E+01    0.45387145E+01    0.33919102E+01
           3
 h2o AIMD
O        0.73308528E+01   -0.14048983E+01    0.66904659E+00
H        0.69398450E+01    0.37575078E+01    0.21075350E+01
H        0.68424635E+01    0.45449806E+01    0.36439391E+01
           3
 h2o AIMD
O        0.75256063E+01   -0.14413141E+01    0.69229656E+00
H        0.70493819E+01    0.39898779E+01    0.19787849E+01
H        0.70664706E+01    0.45222842E+01    0.38344808E+01
           3
 h2o AIMD
O        0.77203695E+01   -0.14778716E+01    0.71544181E+00
H        0.71598281E+01    0.42457683E+01    0.19362011E+01
H        0.72894129E+01    0.44783168E+01    0.39405185E+01
           3
 h2o AIMD
O        0.79151417E+01   -0.15145502E+01    0.73852303E+00
H        0.72762291E+01    0.45121319E+01    0.19854074E+01
H        0.75062594E+01    0.44257989E+01    0.39557823E+01
           3
 h2o AIMD
O        0.81099231E+01   -0.15513545E+01    0.76154138E+00
H        0.74031700E+01    0.47748702E+01    0.21252801E+01
H        0.77124195E+01    0.43789006E+01    0.38813778E+01
           3
 h2o AIMD
O        0.83046868E+01   -0.15879562E+01    0.78463771E+00
H        0.75429014E+01    0.50199773E+01    0.23365408E+01
H        0.79060701E+01    0.43464179E+01    0.37343475E+01
           3
 h2o AIMD
O        0.84994355E+01   -0.16244077E+01    0.80778213E+00
H        0.76921239E+01    0.52462164E+01    0.25832393E+01
H        0.80904671E+01    0.43304189E+01    0.35511159E+01
           3
 h2o AIMD
O        0.86941736E+01   -0.16607632E+01    0.83095408E+00
H        0.78355181E+01    0.54849753E+01    0.28151215E+01
H        0.82808610E+01    0.43003765E+01    0.33822637E+01
           3
 h2o AIMD
O        0.88889039E+01   -0.16970517E+01    0.85414530E+00
H        0.79721435E+01    0.57412633E+01    0.30380824E+01
H        0.84781480E+01    0.42517406E+01    0.32220268E+01
           3
 h2o AIMD
O        0.90836228E+01   -0.17332729E+01    0.87735042E+00
H        0.81218140E+01    0.59583466E+01    0.32653588E+01
H        0.86625694E+01    0.42412431E+01    0.30572540E+01
           3
 h2o AIMD
O        0.92783221E+01   -0.17694275E+01    0.90056487E+00
H        0.82938840E+01    0.61027334E+01    0.34833318E+01
H        0.88249048E+01    0.43023833E+01    0.29016364E+01
           3
 h2o AIMD
O        0.94729857E+01   -0.18055174E+01    0.92379975E+00
H        0.84887888E+01    0.61666287E+01    0.36752713E+01
H        0.89649702E+01    0.44429877E+01    0.27717280E+01
           3
 h2o AIMD
O        0.96676256E+01   -0.18415505E+01    0.94707378E+00
H        0.87044409E+01    0.61533116E+01    0.38274196E+01
H        0.90846645E+01    0.46599035E+01    0.26809894E+01
           3
 h2o AIMD
O        0.98622546E+01   -0.18775290E+01    0.97038089E+00
H        0.89367788E+01    0.60734481E+01    0.39292637E+01
H        0.91878475E+01    0.49424995E+01    0.26400298E+01
           3
 h2o AIMD
O        0.10056878E+02   -0.19134659E+01    0.99370825E+00
H        0.91788661E+01    0.59491228E+01    0.39813032E+01
H        0.92813685E+01    0.52688965E+01    0.26485534E+01
           3
 h2o AIMD
O        0.10251499E+02   -0.19493785E+01    0.10170455E+01
H        0.94223472E+01    0.58153475E+01    0.40160497E+01
H        0.93735389E+01    0.56043578E+01    0.26742128E+01
           3
 h2o AIMD
O        0.10446119E+02   -0.19852890E+01    0.10403872E+01
H        0.96671131E+01    0.56860431E+01    0.40836578E+01
H        0.94644248E+01    0.59353151E+01    0.26669407E+01
           3
 h2o AIMD
O        0.10640740E+02   -0.20211935E+01    0.10637329E+01
H        0.99112996E+01    0.55571940E+01    0.41468901E+01
H        0.95558967E+01    0.62657221E+01    0.26639809E+01
           3
 h2o AIMD
O        0.10835357E+02   -0.20570824E+01    0.10870780E+01
H        0.10142888E+02    0.54536969E+01    0.41577935E+01
H        0.96600083E+01    0.65705291E+01    0.27133578E+01
           3
 h2o AIMD
O        0.11029971E+02   -0.20929527E+01    0.11104217E+01
H        0.10353401E+02    0.53993029E+01    0.41059646E+01
H        0.97852519E+01    0.68259369E+01    0.28254908E+01
