           3
 h2o AIMD
O        0.42545127E+01    0.92066829E+00    0.11413442E+01
H        0.57011815E+01    0.14917721E+01    0.18835312E+01
H        0.42869432E+01    0.56108414E-01    0.27918406E+01
           3
 h2o AIMD
O        0.42160125E+01    0.87774104E+00    0.11626774E+01
H        0.58354119E+01    0.14997141E+01    0.19143830E+01
H        0.42639456E+01   -0.42274484E-01    0.28098880E+01
           3
 h2o AIMD
O        0.41801289E+01    0.83438664E+00    0.11877050E+01
H        0.59658490E+01    0.15280424E+01    0.19056508E+01
H        0.42032084E+01   -0.15426340E+00    0.28088783E+01
           3
 h2o AIMD
O        0.41493092E+01    0.79151674E+00    0.12171639E+01
H        0.60423127E+01    0.15500435E+01    0.18515665E+01
H        0.41160620E+01   -0.26761587E+00    0.27828790E+01
           3
 h2o AIMD
O        0.41242456E+01    0.74967968E+00    0.12504722E+01
H        0.60425349E+01    0.15500559E+01    0.17590228E+01
H        0.40137896E+01   -0.37537429E+00    0.27342375E+01
           3
 h2o AIMD
O        0.41046802E+01    0.70939942E+00    0.12862719E+01
H        0.59604956E+01    0.15190498E+01    0.16400381E+01
H        0.39065032E+01   -0.47682579E+00    0.26724891E+01
           3
 h2o AIMD
O        0.40894441E+01    0.67104609E+00    0.13228476E+01
H        0.58063411E+01    0.14547057E+01    0.15097353E+01
H        0.38026108E+01   -0.57552612E+00    0.26097425E+01
           3
 h2o AIMD
O        0.40754977E+01    0.63406378E+00    0.13586392E+01
H        0.56213775E+01    0.13687652E+01    0.13849799E+01
H        0.37090571E+01   -0.67439275E+00    0.25538928E+01
           3
 h2o AIMD
O        0.40563493E+01    0.59588212E+00    0.13929940E+01
H        0.55021201E+01    0.13001762E+01    0.12760415E+01
H        0.36323691E+01   -0.77157326E+00    0.25050350E+01
           3
 h2o AIMD
O        0.40261913E+01    0.55399975E+00    0.14266959E+01
H        0.55346289E+01    0.12852580E+01    0.11736358E+01
H        0.35786753E+01   -0.86368185E+00    0.24600071E+01
           3
 h2o AIMD
O        0.39893363E+01    0.51109986E+00    0.14597425E+01
H        0.56464590E+01    0.12841336E+01    0.10776013E+01
H        0.35519638E+01   -0.95343266E+00    0.24190096E+01
           3
 h2o AIMD
O        0.39517038E+01    0.47067047E+00    0.14910390E+01
H        0.57417830E+01    0.12485574E+01    0.10035914E+01
H        0.35540992E+01   -0.10479469E+01    0.23837675E+01
           3
 h2o AIMD
O        0.39159708E+01    0.43411658E+00    0.15200406E+01
H        0.57771721E+01    0.11598136E+01    0.96171090E+00
H        0.35860185E+01   -0.11508106E+01    0.23528256E+01
           3
 h2o AIMD
O        0.38829698E+01    0.40118364E+00    0.15469347E+01
H        0.57397912E+01    0.10170446E+01    0.95458622E+00
H        0.36473423E+01   -0.12571259E+01    0.23205788E+01
           3
 h2o AIMD
O        0.38526634E+01    0.37054468E+00    0.15723503E+01
H        0.56339596E+01    0.82967736E+00    0.97897646E+00
H        0.37343444E+01   -0.13552562E+01    0.22802866E+01
           3
 h2o AIMD
O        0.38239208E+01    0.34023470E+00    0.15972742E+01
H        0.54866608E+01    0.61684131E+00    0.10230085E+01
H        0.38379907E+01   -0.14331398E+01    0.22281578E+01
           3
 h2o AIMD
O        0.37935043E+01    0.30818467E+00    0.16232995E+01
H        0.53641894E+01    0.40606074E+00    0.10592083E+01
H        0.39433792E+01   -0.14854583E+01    0.21663783E+01
           3
 h2o AIMD
O        0.37575418E+01    0.27341625E+00    0.16521021E+01
H        0.53463880E+01    0.21893999E+00    0.10521436E+01
H        0.40321320E+01   -0.15182865E+01    0.21037775E+01
           3
 h2o AIMD
O        0.37180769E+01    0.23627206E+00    0.16830050E+01
H        0.54163762E+01    0.64190813E-01    0.10009041E+01
H        0.40886910E+01   -0.15457749E+01    0.20520134E+01
           3
 h2o AIMD
O        0.36805063E+01    0.19688737E+00    0.17137551E+01
H        0.54964802E+01   -0.47857709E-01    0.93262157E+00
H        0.41050634E+01   -0.15803997E+01    0.20197171E+01
