           3
 h2o AIMD
O        0.42393147E-01   -0.56928641E-02    0.22830094E+00
H        0.40125573E-01    0.14411650E+01   -0.87693027E+00
H        0.52791757E-01   -0.14331696E+01   -0.86213323E+00
           3
 h2o AIMD
O        0.84786229E-01   -0.11378812E-01    0.22945297E+00
H        0.80251272E-01    0.14517326E+01   -0.84525981E+00
H        0.10558443E+00   -0.14358516E+01   -0.81575004E+00
           3
 h2o AIMD
O        0.12717903E+00   -0.17049868E-01    0.23062389E+00
H        0.12037750E+00    0.14622961E+01   -0.81365165E+00
H        0.15838103E+00   -0.14387659E+01   -0.76960438E+00
           3
 h2o AIMD
O        0.16957117E+00   -0.22697011E-01    0.23182319E+00
H        0.16050494E+00    0.14728509E+01   -0.78213321E+00
H        0.21118699E+00   -0.14420511E+01   -0.72381939E+00
           3
 h2o AIMD
O        0.21196205E+00   -0.28310239E-01    0.23306018E+00
H        0.20063462E+00    0.14833906E+01   -0.75072932E+00
H        0.26401055E+00   -0.14458596E+01   -0.67851818E+00
           3
 h2o AIMD
O        0.25435089E+00   -0.33878696E-01    0.23434383E+00
H        0.24076791E+00    0.14939069E+01   -0.71946216E+00
H        0.31686301E+00   -0.14503552E+01   -0.63382098E+00
           3
 h2o AIMD
O        0.29673665E+00   -0.39390869E-01    0.23568256E+00
H        0.28090655E+00    0.15043894E+01   -0.68835116E+00
H        0.36975885E+00   -0.14557106E+01   -0.58984181E+00
           3
 h2o AIMD
O        0.33911810E+00   -0.44834861E-01    0.23708398E+00
H        0.32105266E+00    0.15148260E+01   -0.65741294E+00
H        0.42271576E+00   -0.14621022E+01   -0.54668499E+00
           3
 h2o AIMD
O        0.38149378E+00   -0.50198744E-01    0.23855469E+00
H        0.36120878E+00    0.15252025E+01   -0.62666138E+00
H        0.47575436E+00   -0.14697053E+01   -0.50444147E+00
           3
 h2o AIMD
O        0.42386203E+00   -0.55470965E-01    0.24010009E+00
H        0.40137781E+00    0.15355032E+01   -0.59610763E+00
H        0.52889781E+00   -0.14786877E+01   -0.46318558E+00
           3
 h2o AIMD
O        0.46622108E+00   -0.60640793E-01    0.24172416E+00
H        0.44156310E+00    0.15457109E+01   -0.56576022E+00
H        0.58217104E+00   -0.14892024E+01   -0.42297219E+00
           3
 h2o AIMD
O        0.50856908E+00   -0.65698780E-01    0.24342940E+00
H        0.48176836E+00    0.15558070E+01   -0.53562519E+00
H        0.63559983E+00   -0.15013807E+01   -0.38383479E+00
           3
 h2o AIMD
O        0.55090415E+00   -0.70637191E-01    0.24521674E+00
H        0.52199767E+00    0.15657718E+01   -0.50570623E+00
H        0.68920968E+00   -0.15153258E+01   -0.34578457E+00
           3
 h2o AIMD
O        0.59322451E+00   -0.75450376E-01    0.24708560E+00
H        0.56225550E+00    0.15755849E+01   -0.47600486E+00
H        0.74302456E+00   -0.15311071E+01   -0.30881077E+00
           3
 h2o AIMD
O        0.63552852E+00   -0.80135038E-01    0.24903399E+00
H        0.60254661E+00    0.15852256E+01   -0.44652064E+00
H        0.79706571E+00   -0.15487559E+01   -0.27288217E+00
           3
 h2o AIMD
O        0.67781476E+00   -0.84690378E-01    0.25105867E+00
H        0.64287608E+00    0.15946723E+01   -0.41725136E+00
H        0.85135047E+00   -0.15682636E+01   -0.23794974E+00
           3
 h2o AIMD
O        0.72008212E+00   -0.89118105E-01    0.25315542E+00
H        0.68324926E+00    0.16039039E+01   -0.38819324E+00
H        0.90589141E+00   -0.15895818E+01   -0.20395003E+00
           3
 h2o AIMD
O        0.76232977E+00   -0.93422312E-01    0.25531926E+00
H        0.72367174E+00    0.16128989E+01   -0.35934117E+00
H        0.96069568E+00   -0.16126241E+01   -0.17080916E+00
           3
 h2o AIMD
O        0.80455728E+00   -0.97609230E-01    0.25754472E+00
H        0.76414933E+00    0.16216363E+01   -0.33068885E+00
H        0.10157648E+01   -0.16372706E+01   -0.13844683E+00
           3
 h2o AIMD
O        0.84676451E+00   -0.10168690E+00    0.25982614E+00
H        0.80468804E+00    0.16300953E+01   -0.30222902E+00
H        0.10710945E+01   -0.16633728E+01   -0.10678021E+00
           3
 h2o AIMD
O        0.88895168E+00   -0.10566480E+00    0.26215784E+00
H        0.84529404E+00    0.16382556E+01   -0.27395360E+00
H        0.11266753E+01   -0.16907600E+01   -0.75727277E-01
           3
 h2o AIMD
O        0.93111928E+00   -0.10955340E+00    0.26453433E+00
H        0.88597369E+00    0.16460974E+01   -0.24585383E+00
H        0.11824932E+01   -0.17192460E+01   -0.45209548E-01
           3
 h2o AIMD
O        0.97326804E+00   -0.11336384E+00    0.26695041E+00
H        0.92673344E+00    0.16536013E+01   -0.21792039E+00
H        0.12385301E+01   -0.17486351E+01   -0.15154119E-01
           3
 h2o AIMD
O        0.10153989E+01   -0.11710748E+00    0.26940132E+00
H        0.96757991E+00    0.16607489E+01   -0.19014351E+00
H        0.12947647E+01   -0.17787280E+01    0.14505044E-01
           3
 h2o AIMD
O        0.10575129E+01   -0.12079565E+00    0.27188274E+00
H        0.10085198E+01    0.16675221E+01   -0.16251304E+00
H        0.13511735E+01   -0.18093271E+01    0.43826410E-01
           3
 h2o AIMD
O        0.10996111E+01   -0.12443940E+00    0.27439081E+00
H        0.10495600E+01    0.16739040E+01   -0.13501850E+00
H        0.14077318E+01   -0.18402399E+01    0.72860736E-01
           3
 h2o AIMD
O        0.11416948E+01   -0.12804926E+00    0.27692211E+00
H        0.10907074E+01    0.16798781E+01   -0.10764912E+00
H        0.14644139E+01   -0.18712829E+01    0.10165130E+00
           3
 h2o AIMD
O        0.11837651E+01   -0.13163514E+00    0.27947367E+00
H        0.11319690E+01    0.16854289E+01   -0.80393849E-01
H        0.15211942E+01   -0.19022832E+01    0.13023442E+00
           3
 h2o AIMD
O        0.12258232E+01   -0.13520624E+00    0.28204289E+00
H        0.11733519E+01    0.16905418E+01   -0.53241420E-01
H        0.15780474E+01   -0.19330804E+01    0.15864015E+00
           3
 h2o AIMD
O        0.12678701E+01   -0.13877098E+00    0.28462749E+00
H        0.12148632E+01    0.16952032E+01   -0.26180306E-01
H        0.16349492E+01   -0.19635268E+01    0.18689300E+00
           3
 h2o AIMD
O        0.13099069E+01   -0.14233703E+00    0.28722549E+00
H        0.12565101E+01    0.16994003E+01    0.80126193E-03
H        0.16918762E+01   -0.19934883E+01    0.21501279E+00
           3
 h2o AIMD
O        0.13519344E+01   -0.14591125E+00    0.28983512E+00
H        0.12982999E+01    0.17031214E+01    0.27715303E-01
H        0.17488066E+01   -0.20228439E+01    0.24301539E+00
           3
 h2o AIMD
O        0.13939536E+01   -0.14949982E+00    0.29245482E+00
H        0.13402398E+01    0.17063557E+01    0.54574097E-01
H        0.18057200E+01   -0.20514851E+01    0.27091340E+00
           3
 h2o AIMD
O        0.14359652E+01   -0.15310820E+00    0.29508317E+00
H        0.13823371E+01    0.17090935E+01    0.81390189E-01
H        0.18625972E+01   -0.20793155E+01    0.29871684E+00
           3
 h2o AIMD
O        0.14779697E+01   -0.15674119E+00    0.29771886E+00
H        0.14245988E+01    0.17113262E+01    0.10817640E+00
H        0.19194210E+01   -0.21062498E+01    0.32643364E+00
           3
 h2o AIMD
O        0.15199679E+01   -0.16040304E+00    0.30036066E+00
H        0.14670323E+01    0.17130460E+01    0.13494580E+00
H        0.19761755E+01   -0.21322133E+01    0.35407018E+00
           3
 h2o AIMD
O        0.15619600E+01   -0.16409744E+00    0.30300742E+00
H        0.15096446E+01    0.17142462E+01    0.16171176E+00
H        0.20328461E+01   -0.21571405E+01    0.38163163E+00
           3
 h2o AIMD
O        0.16039465E+01   -0.16782758E+00    0.30565799E+00
H        0.15524425E+01    0.17149210E+01    0.18848786E+00
H        0.20894198E+01   -0.21809749E+01    0.40912229E+00
           3
 h2o AIMD
O        0.16459278E+01   -0.17159626E+00    0.30831128E+00
H        0.15954331E+01    0.17150657E+01    0.21528793E+00
H        0.21458847E+01   -0.22036676E+01    0.43654583E+00
           3
 h2o AIMD
O        0.16879040E+01   -0.17540585E+00    0.31096621E+00
H        0.16386228E+01    0.17146765E+01    0.24212596E+00
H        0.22022301E+01   -0.22251769E+01    0.46390549E+00
           3
 h2o AIMD
O        0.17298754E+01   -0.17925838E+00    0.31362169E+00
H        0.16820181E+01    0.17137503E+01    0.26901609E+00
H        0.22584463E+01   -0.22454675E+01    0.49120422E+00
           3
 h2o AIMD
O        0.17718422E+01   -0.18315559E+00    0.31627666E+00
H        0.17256250E+01    0.17122849E+01    0.29597250E+00
H        0.23145246E+01   -0.22645098E+01    0.51844476E+00
           3
 h2o AIMD
O        0.18138045E+01   -0.18709893E+00    0.31893007E+00
H        0.17694493E+01    0.17102789E+01    0.32300939E+00
H        0.23704570E+01   -0.22822793E+01    0.54562969E+00
           3
 h2o AIMD
O        0.18557624E+01   -0.19108960E+00    0.32158086E+00
H        0.18134965E+01    0.17077317E+01    0.35014083E+00
H        0.24262364E+01   -0.22987563E+01    0.57276144E+00
           3
 h2o AIMD
O        0.18977160E+01   -0.19512858E+00    0.32422804E+00
H        0.18577715E+01    0.17046431E+01    0.37738069E+00
H        0.24818560E+01   -0.23139251E+01    0.59984228E+00
           3
 h2o AIMD
O        0.19396654E+01   -0.19921667E+00    0.32687061E+00
H        0.19022787E+01    0.17010138E+01    0.40474251E+00
H        0.25373097E+01   -0.23277735E+01    0.62687430E+00
           3
 h2o AIMD
O        0.19816107E+01   -0.20335448E+00    0.32950763E+00
H        0.19470221E+01    0.16968446E+01    0.43223936E+00
H        0.25925915E+01   -0.23402929E+01    0.65385929E+00
           3
 h2o AIMD
O        0.20235522E+01   -0.20754249E+00    0.33213823E+00
H        0.19920050E+01    0.16921371E+01    0.45988378E+00
H        0.26476960E+01   -0.23514772E+01    0.68079873E+00
           3
 h2o AIMD
O        0.20654899E+01   -0.21178101E+00    0.33476159E+00
H        0.20372303E+01    0.16868931E+01    0.48768755E+00
H        0.27026176E+01   -0.23613230E+01    0.70769368E+00
           3
 h2o AIMD
O        0.21074240E+01   -0.21607026E+00    0.33737699E+00
H        0.20826999E+01    0.16811145E+01    0.51566166E+00
H        0.27573510E+01   -0.23698292E+01    0.73454468E+00
           3
 h2o AIMD
O        0.21493549E+01   -0.22041034E+00    0.33998380E+00
H        0.21284155E+01    0.16748038E+01    0.54381611E+00
H        0.28118907E+01   -0.23769964E+01    0.76135167E+00
           3
 h2o AIMD
O        0.21912828E+01   -0.22480125E+00    0.34258150E+00
H        0.21743776E+01    0.16679632E+01    0.57215986E+00
H        0.28662315E+01   -0.23828269E+01    0.78811393E+00
           3
 h2o AIMD
O        0.22332080E+01   -0.22924291E+00    0.34516969E+00
H        0.22205865E+01    0.16605953E+01    0.60070072E+00
H        0.29203675E+01   -0.23873243E+01    0.81482996E+00
           3
 h2o AIMD
O        0.22751309E+01   -0.23373517E+00    0.34774812E+00
H        0.22670415E+01    0.16527024E+01    0.62944523E+00
H        0.29742932E+01   -0.23904937E+01    0.84149744E+00
           3
 h2o AIMD
O        0.23170521E+01   -0.23827782E+00    0.35031665E+00
H        0.23137414E+01    0.16442871E+01    0.65839862E+00
H        0.30280024E+01   -0.23923407E+01    0.86811317E+00
           3
 h2o AIMD
O        0.23589720E+01   -0.24287058E+00    0.35287529E+00
H        0.23606843E+01    0.16353516E+01    0.68756477E+00
H        0.30814890E+01   -0.23928723E+01    0.89467300E+00
           3
 h2o AIMD
O        0.24008912E+01   -0.24751311E+00    0.35542422E+00
H        0.24078675E+01    0.16258981E+01    0.71694612E+00
H        0.31347464E+01   -0.23920957E+01    0.92117182E+00
           3
 h2o AIMD
O        0.24428103E+01   -0.25220504E+00    0.35796376E+00
H        0.24552880E+01    0.16159287E+01    0.74654367E+00
H        0.31877678E+01   -0.23900191E+01    0.94760352E+00
           3
 h2o AIMD
O        0.24847300E+01   -0.25694595E+00    0.36049438E+00
H        0.25029419E+01    0.16054452E+01    0.77635698E+00
H        0.32405462E+01   -0.23866511E+01    0.97396101E+00
           3
 h2o AIMD
O        0.25266511E+01   -0.26173535E+00    0.36301672E+00
H        0.25508248E+01    0.15944493E+01    0.80638412E+00
H        0.32930742E+01   -0.23820007E+01    0.10002362E+01
           3
 h2o AIMD
O        0.25685743E+01   -0.26657276E+00    0.36553156E+00
H        0.25989320E+01    0.15829425E+01    0.83662167E+00
H        0.33453443E+01   -0.23760776E+01    0.10264199E+01
           3
 h2o AIMD
O        0.26105004E+01   -0.27145759E+00    0.36803986E+00
H        0.26472578E+01    0.15709260E+01    0.86706477E+00
H        0.33973484E+01   -0.23688918E+01    0.10525020E+01
           3
 h2o AIMD
O        0.26524304E+01   -0.27638927E+00    0.37054269E+00
H        0.26957965E+01    0.15584009E+01    0.89770707E+00
H        0.34490787E+01   -0.23604540E+01    0.10784715E+01
           3
 h2o AIMD
O        0.26943652E+01   -0.28136714E+00    0.37304132E+00
H        0.27445415E+01    0.15453681E+01    0.92854076E+00
H        0.35005269E+01   -0.23507751E+01    0.11043165E+01
           3
 h2o AIMD
O        0.27363057E+01   -0.28639050E+00    0.37553714E+00
H        0.27934859E+01    0.15318282E+01    0.95955662E+00
H        0.35516845E+01   -0.23398671E+01    0.11300239E+01
           3
 h2o AIMD
O        0.27782530E+01   -0.29145862E+00    0.37803167E+00
H        0.28426223E+01    0.15177820E+01    0.99074396E+00
H        0.36025431E+01   -0.23277423E+01    0.11555802E+01
           3
 h2o AIMD
O        0.28202080E+01   -0.29657069E+00    0.38052660E+00
H        0.28919429E+01    0.15032297E+01    0.10220907E+01
H        0.36530941E+01   -0.23144138E+01    0.11809707E+01
           3
 h2o AIMD
O        0.28621719E+01   -0.30172586E+00    0.38302374E+00
H        0.29414393E+01    0.14881719E+01    0.10535834E+01
H        0.37033288E+01   -0.22998957E+01    0.12061803E+01
           3
 h2o AIMD
O        0.29041457E+01   -0.30692321E+00    0.38552503E+00
H        0.29911029E+01    0.14726090E+01    0.10852073E+01
H        0.37532388E+01   -0.22842029E+01    0.12311929E+01
           3
 h2o AIMD
O        0.29461306E+01   -0.31216176E+00    0.38803253E+00
H        0.30409244E+01    0.14565413E+01    0.11169461E+01
H        0.38028156E+01   -0.22673514E+01    0.12559920E+01
           3
 h2o AIMD
O        0.29881276E+01   -0.31744046E+00    0.39054841E+00
H        0.30908942E+01    0.14399696E+01    0.11487823E+01
H        0.38520508E+01   -0.22493584E+01    0.12805604E+01
           3
 h2o AIMD
O        0.30301380E+01   -0.32275820E+00    0.39307497E+00
H        0.31410023E+01    0.14228944E+01    0.11806973E+01
H        0.39009364E+01   -0.22302423E+01    0.13048807E+01
           3
 h2o AIMD
O        0.30721628E+01   -0.32811379E+00    0.39561460E+00
H        0.31912383E+01    0.14053169E+01    0.12126710E+01
H        0.39494646E+01   -0.22100231E+01    0.13289349E+01
           3
 h2o AIMD
O        0.31142032E+01   -0.33350595E+00    0.39816977E+00
H        0.32415911E+01    0.13872383E+01    0.12446823E+01
H        0.39976279E+01   -0.21887223E+01    0.13527047E+01
           3
 h2o AIMD
O        0.31562604E+01   -0.33893334E+00    0.40074306E+00
H        0.32920496E+01    0.13686606E+01    0.12767087E+01
H        0.40454195E+01   -0.21663632E+01    0.13761718E+01
           3
 h2o AIMD
O        0.31983355E+01   -0.34439454E+00    0.40333709E+00
H        0.33426019E+01    0.13495862E+01    0.13087270E+01
H        0.40928329E+01   -0.21429706E+01    0.13993178E+01
           3
 h2o AIMD
O        0.32404296E+01   -0.34988803E+00    0.40595457E+00
H        0.33932359E+01    0.13300181E+01    0.13407126E+01
H        0.41398624E+01   -0.21185719E+01    0.14221243E+01
           3
 h2o AIMD
O        0.32825439E+01   -0.35541222E+00    0.40859823E+00
H        0.34439390E+01    0.13099604E+01    0.13726401E+01
H        0.41865031E+01   -0.20931962E+01    0.14445732E+01
           3
 h2o AIMD
O        0.33246794E+01   -0.36096543E+00    0.41127085E+00
H        0.34946983E+01    0.12894179E+01    0.14044834E+01
H        0.42327509E+01   -0.20668753E+01    0.14666468E+01
           3
 h2o AIMD
O        0.33668372E+01   -0.36654588E+00    0.41397521E+00
H        0.35455003E+01    0.12683968E+01    0.14362155E+01
H        0.42786027E+01   -0.20396432E+01    0.14883277E+01
           3
 h2o AIMD
O        0.34090182E+01   -0.37215171E+00    0.41671409E+00
H        0.35963313E+01    0.12469043E+01    0.14678087E+01
H        0.43240567E+01   -0.20115368E+01    0.15095996E+01
           3
 h2o AIMD
O        0.34512233E+01   -0.37778098E+00    0.41949026E+00
H        0.36471769E+01    0.12249493E+01    0.14992348E+01
H        0.43691122E+01   -0.19825958E+01    0.15304466E+01
           3
 h2o AIMD
O        0.34934536E+01   -0.38343166E+00    0.42230643E+00
H        0.36980227E+01    0.12025421E+01    0.15304653E+01
H        0.44137701E+01   -0.19528629E+01    0.15508542E+01
           3
 h2o AIMD
O        0.35357096E+01   -0.38910161E+00    0.42516526E+00
H        0.37488536E+01    0.11796949E+01    0.15614713E+01
H        0.44580329E+01   -0.19223840E+01    0.15708092E+01
           3
 h2o AIMD
O        0.35779922E+01   -0.39478863E+00    0.42806931E+00
H        0.37996541E+01    0.11564219E+01    0.15922238E+01
H        0.45019047E+01   -0.18912084E+01    0.15902999E+01
           3
 h2o AIMD
O        0.36203019E+01   -0.40049043E+00    0.43102103E+00
H        0.38504086E+01    0.11327393E+01    0.16226940E+01
H        0.45453918E+01   -0.18593887E+01    0.16093163E+01
           3
 h2o AIMD
O        0.36626393E+01   -0.40620461E+00    0.43402274E+00
H        0.39011008E+01    0.11086657E+01    0.16528530E+01
H        0.45885025E+01   -0.18269813E+01    0.16278504E+01
           3
 h2o AIMD
O        0.37050046E+01   -0.41192873E+00    0.43707656E+00
H        0.39517143E+01    0.10842220E+01    0.16826726E+01
H        0.46312473E+01   -0.17940460E+01    0.16458966E+01
           3
 h2o AIMD
O        0.37473982E+01   -0.41766026E+00    0.44018446E+00
H        0.40022322E+01    0.10594315E+01    0.17121250E+01
H        0.46736394E+01   -0.17606464E+01    0.16634517E+01
           3
 h2o AIMD
O        0.37898202E+01   -0.42339660E+00    0.44334815E+00
H        0.40526374E+01    0.10343202E+01    0.17411832E+01
H        0.47156944E+01   -0.17268497E+01    0.16805153E+01
           3
 h2o AIMD
O        0.38322704E+01   -0.42913509E+00    0.44656912E+00
H        0.41029123E+01    0.10089166E+01    0.17698211E+01
H        0.47574309E+01   -0.16927264E+01    0.16970901E+01
           3
 h2o AIMD
O        0.38747487E+01   -0.43487304E+00    0.44984855E+00
H        0.41530395E+01    0.98325178E+00    0.17980140E+01
H        0.47988702E+01   -0.16583506E+01    0.17131819E+01
           3
 h2o AIMD
O        0.39172545E+01   -0.44060771E+00    0.45318735E+00
H        0.42030010E+01    0.95735937E+00    0.18257382E+01
H        0.48400366E+01   -0.16237993E+01    0.17288001E+01
           3
 h2o AIMD
O        0.39597875E+01   -0.44633634E+00    0.45658607E+00
H        0.42527787E+01    0.93127535E+00    0.18529718E+01
H        0.48809575E+01   -0.15891521E+01    0.17439576E+01
           3
 h2o AIMD
O        0.40023466E+01   -0.45205618E+00    0.46004493E+00
H        0.43023547E+01    0.90503809E+00    0.18796947E+01
H        0.49216634E+01   -0.15544913E+01    0.17586712E+01
           3
 h2o AIMD
O        0.40449311E+01   -0.45776449E+00    0.46356379E+00
H        0.43517107E+01    0.87868817E+00    0.19058885E+01
H        0.49621879E+01   -0.15199008E+01    0.17729615E+01
           3
 h2o AIMD
O        0.40875397E+01   -0.46345856E+00    0.46714213E+00
H        0.44008286E+01    0.85226830E+00    0.19315370E+01
H        0.50025676E+01   -0.14854664E+01    0.17868530E+01
           3
 h2o AIMD
O        0.41301711E+01   -0.46913577E+00    0.47077907E+00
H        0.44496899E+01    0.82582328E+00    0.19566261E+01
H        0.50428421E+01   -0.14512745E+01    0.18003737E+01
           3
 h2o AIMD
O        0.41728237E+01   -0.47479357E+00    0.47447333E+00
H        0.44982765E+01    0.79939989E+00    0.19811444E+01
H        0.50830537E+01   -0.14174124E+01    0.18135554E+01
