           3
 h2o AIMD
O        0.37832666E+01   -0.34508823E+00    0.73688390E+00
H        0.40992783E+01    0.72460004E+00   -0.48273183E+00
H        0.48224276E+01   -0.13991848E+01   -0.20868954E+00
           3
 h2o AIMD
O        0.37941819E+01   -0.27124642E+00    0.77598226E+00
H        0.43673135E+01    0.65331627E+00   -0.50432089E+00
H        0.48572663E+01   -0.12849600E+01   -0.20775416E+00
           3
 h2o AIMD
O        0.38032674E+01   -0.19982247E+00    0.81889587E+00
H        0.46383878E+01    0.71337518E+00   -0.59715770E+00
H        0.49181098E+01   -0.12636983E+01   -0.19613173E+00
           3
 h2o AIMD
O        0.38144927E+01   -0.12801123E+00    0.85892986E+00
H        0.48785668E+01    0.83812070E+00   -0.67536309E+00
H        0.49758833E+01   -0.13132709E+01   -0.15343160E+00
           3
 h2o AIMD
O        0.38310392E+01   -0.55474250E-01    0.89250514E+00
H        0.50651755E+01    0.98092791E+00   -0.69604757E+00
H        0.50027613E+01   -0.13924250E+01   -0.65730842E-01
           3
 h2o AIMD
O        0.38544474E+01    0.17284800E-01    0.91856102E+00
H        0.51884763E+01    0.11156820E+01   -0.64593340E+00
H        0.49840288E+01   -0.14670510E+01    0.70529487E-01
           3
 h2o AIMD
O        0.38851806E+01    0.89855133E-01    0.93725448E+00
H        0.52443641E+01    0.12264339E+01   -0.52298004E+00
H        0.49164368E+01   -0.15146793E+01    0.25081699E+00
           3
 h2o AIMD
O        0.39228841E+01    0.16222383E+00    0.94948973E+00
H        0.52324498E+01    0.13017365E+01   -0.33081403E+00
H        0.48060044E+01   -0.15236576E+01    0.46440536E+00
           3
 h2o AIMD
O        0.39661676E+01    0.23479639E+00    0.95698673E+00
H        0.51604106E+01    0.13355408E+01   -0.81534288E-01
H        0.46671253E+01   -0.14943735E+01    0.69609186E+00
           3
 h2o AIMD
O        0.40116313E+01    0.30746775E+00    0.96286823E+00
H        0.50622343E+01    0.13429461E+01    0.19081318E+00
H        0.45197746E+01   -0.14402589E+01    0.93035425E+00
           3
 h2o AIMD
O        0.40516168E+01    0.37606696E+00    0.97257427E+00
H        0.50416746E+01    0.14078670E+01    0.40900083E+00
H        0.43817651E+01   -0.13790210E+01    0.11580680E+01
           3
 h2o AIMD
O        0.40788487E+01    0.43487186E+00    0.98891802E+00
H        0.52036390E+01    0.16274159E+01    0.52962128E+00
H        0.42636753E+01   -0.13169426E+01    0.13779862E+01
           3
 h2o AIMD
O        0.41001631E+01    0.49157521E+00    0.10066830E+01
H        0.54325681E+01    0.18751096E+01    0.63311784E+00
H        0.41725496E+01   -0.12496502E+01    0.15924687E+01
           3
 h2o AIMD
O        0.41209932E+01    0.55132772E+00    0.10233985E+01
H        0.56375609E+01    0.20555990E+01    0.75745634E+00
H        0.41130488E+01   -0.11635539E+01    0.18027674E+01
           3
 h2o AIMD
O        0.41432237E+01    0.61478053E+00    0.10388151E+01
H        0.57867218E+01    0.21428932E+01    0.90882018E+00
H        0.40871506E+01   -0.10429988E+01    0.20066593E+01
           3
 h2o AIMD
O        0.41677321E+01    0.68133908E+00    0.10534589E+01
H        0.58677925E+01    0.21361931E+01    0.10839809E+01
H        0.40931847E+01   -0.87774778E+00    0.21990220E+01
           3
 h2o AIMD
O        0.41952435E+01    0.75036624E+00    0.10682342E+01
H        0.58746245E+01    0.20436411E+01    0.12749292E+01
H        0.41257899E+01   -0.66583011E+00    0.23735086E+01
           3
 h2o AIMD
O        0.42261425E+01    0.82118487E+00    0.10842145E+01
H        0.58101808E+01    0.18830780E+01    0.14697566E+01
H        0.41758969E+01   -0.41433789E+00    0.25249890E+01
           3
 h2o AIMD
O        0.42593725E+01    0.89241474E+00    0.11021540E+01
H        0.57054799E+01    0.16936929E+01    0.16570037E+01
H        0.42292626E+01   -0.14055147E+00    0.26529504E+01
           3
 h2o AIMD
O        0.42906982E+01    0.96141199E+00    0.11211731E+01
H        0.56498981E+01    0.15449121E+01    0.18425161E+01
H        0.42637356E+01    0.12806979E+00    0.27655103E+01
