           3
 h2o AIMD
O        0.36786273E+01    0.17035298E+00    0.16900422E+01
H        0.53124653E+01   -0.30519806E+00    0.11847421E+01
H        0.42284310E+01   -0.17888830E+01    0.21552003E+01
           3
 h2o AIMD
O        0.36771437E+01    0.13808799E+00    0.16681980E+01
H        0.51923424E+01   -0.51010615E+00    0.13920888E+01
H        0.42816297E+01   -0.19588347E+01    0.23057927E+01
           3
 h2o AIMD
O        0.36709744E+01    0.10132788E+00    0.16498514E+01
H        0.52260938E+01   -0.68884804E+00    0.15339770E+01
H        0.42553307E+01   -0.20835999E+01    0.24663252E+01
           3
 h2o AIMD
O        0.36629651E+01    0.59237357E-01    0.16344960E+01
H        0.53644325E+01   -0.83399292E+00    0.16285613E+01
H        0.41536517E+01   -0.21573505E+01    0.26266833E+01
           3
 h2o AIMD
O        0.36577781E+01    0.97095894E-02    0.16221522E+01
H        0.55213553E+01   -0.92465658E+00    0.16904898E+01
H        0.39885905E+01   -0.21675283E+01    0.27718904E+01
           3
 h2o AIMD
O        0.36578591E+01   -0.48464192E-01    0.16133979E+01
H        0.56444924E+01   -0.95355424E+00    0.17258260E+01
H        0.37736927E+01   -0.21022307E+01    0.28867145E+01
           3
 h2o AIMD
O        0.36640345E+01   -0.11564820E+00    0.16089347E+01
H        0.57073919E+01   -0.92209634E+00    0.17369179E+01
H        0.35222959E+01   -0.19542660E+01    0.29576663E+01
           3
 h2o AIMD
O        0.36760882E+01   -0.19126284E+00    0.16092186E+01
H        0.56967799E+01   -0.83816754E+00    0.17265957E+01
H        0.32511001E+01   -0.17249498E+01    0.29746823E+01
           3
 h2o AIMD
O        0.36928897E+01   -0.27313024E+00    0.16137185E+01
H        0.56099608E+01   -0.71736413E+00    0.17014584E+01
H        0.29807496E+01   -0.14332557E+01    0.29395892E+01
           3
 h2o AIMD
O        0.37123889E+01   -0.35699818E+00    0.16197519E+01
H        0.54676269E+01   -0.58417960E+00    0.16742756E+01
H        0.27230900E+01   -0.11221876E+01    0.28822010E+01
           3
 h2o AIMD
O        0.37302238E+01   -0.43902138E+00    0.16233747E+01
H        0.53478112E+01   -0.46450170E+00    0.16631270E+01
H        0.24693313E+01   -0.82689514E+00    0.28470422E+01
           3
 h2o AIMD
O        0.37373859E+01   -0.51997843E+00    0.16239719E+01
H        0.53762085E+01   -0.35640573E+00    0.16840758E+01
H        0.22367737E+01   -0.53694396E+00    0.28278126E+01
           3
 h2o AIMD
O        0.37330623E+01   -0.60217596E+00    0.16232562E+01
H        0.55200083E+01   -0.23324676E+00    0.17428543E+01
H        0.20711300E+01   -0.24236525E+00    0.27915943E+01
           3
 h2o AIMD
O        0.37238049E+01   -0.68506840E+00    0.16227995E+01
H        0.56478195E+01   -0.96644313E-01    0.18310434E+01
H        0.19997903E+01    0.49800573E-01    0.27218537E+01
           3
 h2o AIMD
O        0.37133458E+01   -0.76663403E+00    0.16239386E+01
H        0.56945848E+01    0.37101117E-01    0.19327986E+01
H        0.20285722E+01    0.32376244E+00    0.26132154E+01
           3
 h2o AIMD
O        0.37031390E+01   -0.84440875E+00    0.16277204E+01
H        0.56433602E+01    0.14966378E+00    0.20323832E+01
H        0.21513394E+01    0.55873249E+00    0.24648013E+01
           3
 h2o AIMD
O        0.36938428E+01   -0.91594367E+00    0.16347405E+01
H        0.54978493E+01    0.22344819E+00    0.21173348E+01
H        0.23539374E+01    0.73343423E+00    0.22796158E+01
           3
 h2o AIMD
O        0.36858099E+01   -0.97925113E+00    0.16450854E+01
H        0.52754171E+01    0.24353102E+00    0.21796511E+01
H        0.26134043E+01    0.83124021E+00    0.20642894E+01
           3
 h2o AIMD
O        0.36789219E+01   -0.10335468E+01    0.16582214E+01
H        0.50133576E+01    0.20237463E+00    0.22195401E+01
H        0.28943247E+01    0.84723835E+00    0.18270867E+01
           3
 h2o AIMD
O        0.36718339E+01   -0.10806512E+01    0.16726847E+01
H        0.47807332E+01    0.11281412E+00    0.22573331E+01
H        0.31489861E+01    0.79749058E+00    0.15709122E+01
